400

C   1.42   3.91443   0
C   2.84   3.91443   0
C   0.71   3.72285   1.20963
C   3.55   3.72285   1.20963
C   1.42   3.16684   2.30085
C   2.84   3.16684   2.30085
C   0.71   2.30085   3.16684
C   3.55   2.30085   3.16684
C   1.42   1.20963   3.72285
C   2.84   1.20963   3.72285
C   0.71   -6.78e-07   3.91443
C   3.55   -6.78e-07   3.91443
C   1.42   -1.20963   3.72285
C   2.84   -1.20963   3.72285
C   0.71   -2.30085   3.16684
C   3.55   -2.30085   3.16684
C   1.42   -3.16684   2.30085
C   2.84   -3.16684   2.30085
C   0.71   -3.72285   1.20963
C   3.55   -3.72285   1.20963
C   1.42   -3.91443   -1.356e-06
C   2.84   -3.91443   -1.356e-06
C   0.71   -3.72285   -1.20963
C   3.55   -3.72285   -1.20963
C   1.42   -3.16684   -2.30085
C   2.84   -3.16684   -2.30085
C   0.71   -2.30085   -3.16685
C   3.55   -2.30085   -3.16685
C   1.42   -1.20963   -3.72285
C   2.84   -1.20963   -3.72285
C   0.71   2.034e-06   -3.91443
C   3.55   2.034e-06   -3.91443
C   1.42   1.20963   -3.72285
C   2.84   1.20963   -3.72285
C   0.71   2.30085   -3.16684
C   3.55   2.30085   -3.16684
C   1.42   3.16685   -2.30084
C   2.84   3.16685   -2.30084
C   0.71   3.72285   -1.20962
C   3.55   3.72285   -1.20962
C   5.68   3.91443   0
C   7.1   3.91443   0
C   4.97   3.72285   1.20963
C   7.81   3.72285   1.20963
C   5.68   3.16684   2.30085
C   7.1   3.16684   2.30085
C   4.97   2.30085   3.16684
C   7.81   2.30085   3.16684
C   5.68   1.20963   3.72285
C   7.1   1.20963   3.72285
C   4.97   -6.78e-07   3.91443
C   7.81   -6.78e-07   3.91443
C   5.68   -1.20963   3.72285
C   7.1   -1.20963   3.72285
C   4.97   -2.30085   3.16684
C   7.81   -2.30085   3.16684
C   5.68   -3.16684   2.30085
C   7.1   -3.16684   2.30085
C   4.97   -3.72285   1.20963
C   7.81   -3.72285   1.20963
C   5.68   -3.91443   -1.356e-06
C   7.1   -3.91443   -1.356e-06
C   4.97   -3.72285   -1.20963
C   7.81   -3.72285   -1.20963
C   5.68   -3.16684   -2.30085
C   7.1   -3.16684   -2.30085
C   4.97   -2.30085   -3.16685
C   7.81   -2.30085   -3.16685
C   5.68   -1.20963   -3.72285
C   7.1   -1.20963   -3.72285
C   4.97   2.034e-06   -3.91443
C   7.81   2.034e-06   -3.91443
C   5.68   1.20963   -3.72285
C   7.1   1.20963   -3.72285
C   4.97   2.30085   -3.16684
C   7.81   2.30085   -3.16684
C   5.68   3.16685   -2.30084
C   7.1   3.16685   -2.30084
C   4.97   3.72285   -1.20962
C   7.81   3.72285   -1.20962
C   9.94   3.91443   0
C   11.36   3.91443   0
C   9.23   3.72285   1.20963
C   12.07   3.72285   1.20963
C   9.94   3.16684   2.30085
C   11.36   3.16684   2.30085
C   9.23   2.30085   3.16684
C   12.07   2.30085   3.16684
C   9.94   1.20963   3.72285
C   11.36   1.20963   3.72285
C   9.23   -6.78e-07   3.91443
C   12.07   -6.78e-07   3.91443
C   9.94   -1.20963   3.72285
C   11.36   -1.20963   3.72285
C   9.23   -2.30085   3.16684
C   12.07   -2.30085   3.16684
C   9.94   -3.16684   2.30085
C   11.36   -3.16684   2.30085
C   9.23   -3.72285   1.20963
C   12.07   -3.72285   1.20963
C   9.94   -3.91443   -1.356e-06
C   11.36   -3.91443   -1.356e-06
C   9.23   -3.72285   -1.20963
C   12.07   -3.72285   -1.20963
C   9.94   -3.16684   -2.30085
C   11.36   -3.16684   -2.30085
C   9.23   -2.30085   -3.16685
C   12.07   -2.30085   -3.16685
C   9.94   -1.20963   -3.72285
C   11.36   -1.20963   -3.72285
C   9.23   2.034e-06   -3.91443
C   12.07   2.034e-06   -3.91443
C   9.94   1.20963   -3.72285
C   11.36   1.20963   -3.72285
C   9.23   2.30085   -3.16684
C   12.07   2.30085   -3.16684
C   9.94   3.16685   -2.30084
C   11.36   3.16685   -2.30084
C   9.23   3.72285   -1.20962
C   12.07   3.72285   -1.20962
C   14.2   3.91443   0
C   15.62   3.91443   0
C   13.49   3.72285   1.20963
C   16.33   3.72285   1.20963
C   14.2   3.16684   2.30085
C   15.62   3.16684   2.30085
C   13.49   2.30085   3.16684
C   16.33   2.30085   3.16684
C   14.2   1.20963   3.72285
C   15.62   1.20963   3.72285
C   13.49   -6.78e-07   3.91443
C   16.33   -6.78e-07   3.91443
C   14.2   -1.20963   3.72285
C   15.62   -1.20963   3.72285
C   13.49   -2.30085   3.16684
C   16.33   -2.30085   3.16684
C   14.2   -3.16684   2.30085
C   15.62   -3.16684   2.30085
C   13.49   -3.72285   1.20963
C   16.33   -3.72285   1.20963
C   14.2   -3.91443   -1.356e-06
C   15.62   -3.91443   -1.356e-06
C   13.49   -3.72285   -1.20963
C   16.33   -3.72285   -1.20963
C   14.2   -3.16684   -2.30085
C   15.62   -3.16684   -2.30085
C   13.49   -2.30085   -3.16685
C   16.33   -2.30085   -3.16685
C   14.2   -1.20963   -3.72285
C   15.62   -1.20963   -3.72285
C   13.49   2.034e-06   -3.91443
C   16.33   2.034e-06   -3.91443
C   14.2   1.20963   -3.72285
C   15.62   1.20963   -3.72285
C   13.49   2.30085   -3.16684
C   16.33   2.30085   -3.16684
C   14.2   3.16685   -2.30084
C   15.62   3.16685   -2.30084
C   13.49   3.72285   -1.20962
C   16.33   3.72285   -1.20962
C   18.46   3.91443   0
C   19.88   3.91443   0
C   17.75   3.72285   1.20963
C   20.59   3.72285   1.20963
C   18.46   3.16684   2.30085
C   19.88   3.16684   2.30085
C   17.75   2.30085   3.16684
C   20.59   2.30085   3.16684
C   18.46   1.20963   3.72285
C   19.88   1.20963   3.72285
C   17.75   -6.78e-07   3.91443
C   20.59   -6.78e-07   3.91443
C   18.46   -1.20963   3.72285
C   19.88   -1.20963   3.72285
C   17.75   -2.30085   3.16684
C   20.59   -2.30085   3.16684
C   18.46   -3.16684   2.30085
C   19.88   -3.16684   2.30085
C   17.75   -3.72285   1.20963
C   20.59   -3.72285   1.20963
C   18.46   -3.91443   -1.356e-06
C   19.88   -3.91443   -1.356e-06
C   17.75   -3.72285   -1.20963
C   20.59   -3.72285   -1.20963
C   18.46   -3.16684   -2.30085
C   19.88   -3.16684   -2.30085
C   17.75   -2.30085   -3.16685
C   20.59   -2.30085   -3.16685
C   18.46   -1.20963   -3.72285
C   19.88   -1.20963   -3.72285
C   17.75   2.034e-06   -3.91443
C   20.59   2.034e-06   -3.91443
C   18.46   1.20963   -3.72285
C   19.88   1.20963   -3.72285
C   17.75   2.30085   -3.16684
C   20.59   2.30085   -3.16684
C   18.46   3.16685   -2.30084
C   19.88   3.16685   -2.30084
C   17.75   3.72285   -1.20962
C   20.59   3.72285   -1.20962
C   22.72   3.91443   0
C   24.14   3.91443   0
C   22.01   3.72285   1.20963
C   24.85   3.72285   1.20963
C   22.72   3.16684   2.30085
C   24.14   3.16684   2.30085
C   22.01   2.30085   3.16684
C   24.85   2.30085   3.16684
C   22.72   1.20963   3.72285
C   24.14   1.20963   3.72285
C   22.01   -6.78e-07   3.91443
C   24.85   -6.78e-07   3.91443
C   22.72   -1.20963   3.72285
C   24.14   -1.20963   3.72285
C   22.01   -2.30085   3.16684
C   24.85   -2.30085   3.16684
C   22.72   -3.16684   2.30085
C   24.14   -3.16684   2.30085
C   22.01   -3.72285   1.20963
C   24.85   -3.72285   1.20963
C   22.72   -3.91443   -1.356e-06
C   24.14   -3.91443   -1.356e-06
C   22.01   -3.72285   -1.20963
C   24.85   -3.72285   -1.20963
C   22.72   -3.16684   -2.30085
C   24.14   -3.16684   -2.30085
C   22.01   -2.30085   -3.16685
C   24.85   -2.30085   -3.16685
C   22.72   -1.20963   -3.72285
C   24.14   -1.20963   -3.72285
C   22.01   2.034e-06   -3.91443
C   24.85   2.034e-06   -3.91443
C   22.72   1.20963   -3.72285
C   24.14   1.20963   -3.72285
C   22.01   2.30085   -3.16684
C   24.85   2.30085   -3.16684
C   22.72   3.16685   -2.30084
C   24.14   3.16685   -2.30084
C   22.01   3.72285   -1.20962
C   24.85   3.72285   -1.20962
C   26.98   3.91443   0
C   28.4   3.91443   0
C   26.27   3.72285   1.20963
C   29.11   3.72285   1.20963
C   26.98   3.16684   2.30085
C   28.4   3.16684   2.30085
C   26.27   2.30085   3.16684
C   29.11   2.30085   3.16684
C   26.98   1.20963   3.72285
C   28.4   1.20963   3.72285
C   26.27   -6.78e-07   3.91443
C   29.11   -6.78e-07   3.91443
C   26.98   -1.20963   3.72285
C   28.4   -1.20963   3.72285
C   26.27   -2.30085   3.16684
C   29.11   -2.30085   3.16684
C   26.98   -3.16684   2.30085
C   28.4   -3.16684   2.30085
C   26.27   -3.72285   1.20963
C   29.11   -3.72285   1.20963
C   26.98   -3.91443   -1.356e-06
C   28.4   -3.91443   -1.356e-06
C   26.27   -3.72285   -1.20963
C   29.11   -3.72285   -1.20963
C   26.98   -3.16684   -2.30085
C   28.4   -3.16684   -2.30085
C   26.27   -2.30085   -3.16685
C   29.11   -2.30085   -3.16685
C   26.98   -1.20963   -3.72285
C   28.4   -1.20963   -3.72285
C   26.27   2.034e-06   -3.91443
C   29.11   2.034e-06   -3.91443
C   26.98   1.20963   -3.72285
C   28.4   1.20963   -3.72285
C   26.27   2.30085   -3.16684
C   29.11   2.30085   -3.16684
C   26.98   3.16685   -2.30084
C   28.4   3.16685   -2.30084
C   26.27   3.72285   -1.20962
C   29.11   3.72285   -1.20962
C   31.24   3.91443   0
C   32.66   3.91443   0
C   30.53   3.72285   1.20963
C   33.37   3.72285   1.20963
C   31.24   3.16684   2.30085
C   32.66   3.16684   2.30085
C   30.53   2.30085   3.16684
C   33.37   2.30085   3.16684
C   31.24   1.20963   3.72285
C   32.66   1.20963   3.72285
C   30.53   -6.78e-07   3.91443
C   33.37   -6.78e-07   3.91443
C   31.24   -1.20963   3.72285
C   32.66   -1.20963   3.72285
C   30.53   -2.30085   3.16684
C   33.37   -2.30085   3.16684
C   31.24   -3.16684   2.30085
C   32.66   -3.16684   2.30085
C   30.53   -3.72285   1.20963
C   33.37   -3.72285   1.20963
C   31.24   -3.91443   -1.356e-06
C   32.66   -3.91443   -1.356e-06
C   30.53   -3.72285   -1.20963
C   33.37   -3.72285   -1.20963
C   31.24   -3.16684   -2.30085
C   32.66   -3.16684   -2.30085
C   30.53   -2.30085   -3.16685
C   33.37   -2.30085   -3.16685
C   31.24   -1.20963   -3.72285
C   32.66   -1.20963   -3.72285
C   30.53   2.034e-06   -3.91443
C   33.37   2.034e-06   -3.91443
C   31.24   1.20963   -3.72285
C   32.66   1.20963   -3.72285
C   30.53   2.30085   -3.16684
C   33.37   2.30085   -3.16684
C   31.24   3.16685   -2.30084
C   32.66   3.16685   -2.30084
C   30.53   3.72285   -1.20962
C   33.37   3.72285   -1.20962
C   35.5   3.91443   0
C   36.92   3.91443   0
C   34.79   3.72285   1.20963
C   37.63   3.72285   1.20963
C   35.5   3.16684   2.30085
C   36.92   3.16684   2.30085
C   34.79   2.30085   3.16684
C   37.63   2.30085   3.16684
C   35.5   1.20963   3.72285
C   36.92   1.20963   3.72285
C   34.79   -6.78e-07   3.91443
C   37.63   -6.78e-07   3.91443
C   35.5   -1.20963   3.72285
C   36.92   -1.20963   3.72285
C   34.79   -2.30085   3.16684
C   37.63   -2.30085   3.16684
C   35.5   -3.16684   2.30085
C   36.92   -3.16684   2.30085
C   34.79   -3.72285   1.20963
C   37.63   -3.72285   1.20963
C   35.5   -3.91443   -1.356e-06
C   36.92   -3.91443   -1.356e-06
C   34.79   -3.72285   -1.20963
C   37.63   -3.72285   -1.20963
C   35.5   -3.16684   -2.30085
C   36.92   -3.16684   -2.30085
C   34.79   -2.30085   -3.16685
C   37.63   -2.30085   -3.16685
C   35.5   -1.20963   -3.72285
C   36.92   -1.20963   -3.72285
C   34.79   2.034e-06   -3.91443
C   37.63   2.034e-06   -3.91443
C   35.5   1.20963   -3.72285
C   36.92   1.20963   -3.72285
C   34.79   2.30085   -3.16684
C   37.63   2.30085   -3.16684
C   35.5   3.16685   -2.30084
C   36.92   3.16685   -2.30084
C   34.79   3.72285   -1.20962
C   37.63   3.72285   -1.20962
C   39.76   3.91443   0
C   41.18   3.91443   0
C   39.05   3.72285   1.20963
C   41.89   3.72285   1.20963
C   39.76   3.16684   2.30085
C   41.18   3.16684   2.30085
C   39.05   2.30085   3.16684
C   41.89   2.30085   3.16684
C   39.76   1.20963   3.72285
C   41.18   1.20963   3.72285
C   39.05   -6.78e-07   3.91443
C   41.89   -6.78e-07   3.91443
C   39.76   -1.20963   3.72285
C   41.18   -1.20963   3.72285
C   39.05   -2.30085   3.16684
C   41.89   -2.30085   3.16684
C   39.76   -3.16684   2.30085
C   41.18   -3.16684   2.30085
C   39.05   -3.72285   1.20963
C   41.89   -3.72285   1.20963
C   39.76   -3.91443   -1.356e-06
C   41.18   -3.91443   -1.356e-06
C   39.05   -3.72285   -1.20963
C   41.89   -3.72285   -1.20963
C   39.76   -3.16684   -2.30085
C   41.18   -3.16684   -2.30085
C   39.05   -2.30085   -3.16685
C   41.89   -2.30085   -3.16685
C   39.76   -1.20963   -3.72285
C   41.18   -1.20963   -3.72285
C   39.05   2.034e-06   -3.91443
C   41.89   2.034e-06   -3.91443
C   39.76   1.20963   -3.72285
C   41.18   1.20963   -3.72285
C   39.05   2.30085   -3.16684
C   41.89   2.30085   -3.16684
C   39.76   3.16685   -2.30084
C   41.18   3.16685   -2.30084
C   39.05   3.72285   -1.20962
C   41.89   3.72285   -1.20962
